src/examples/case14_twoarea/two_area_02pulim_1_3/results/res_branch_2.csv
branch,from_bus,to_bus,X,B,G,Bfr,Bto,p_from,p_to,q_from,q_to,p_loss,q_loss,s_from,s_to,rate_a,ang_deg,angmin,angmax
7,4,5,0.07018333333333335,-13.750861129582134,2.615635185180549,0.0,0.0,-0.02626792423054101,0.026343413408578105,0.06598989910822191,-0.06559303902243636,7.548917803709351e-5,0.0003968600857855442,0.07102584478691365,0.07068537471227065,0.2,-0.17582201996543734,-60.0001403060998,60.0001403060998
4,2,4,0.2938666666666667,-3.274849999726149,0.6475778135801491,0.028333333333333335,0.028333333333333335,0.14249930198876729,-0.14098294836232025,0.03922946993655504,-0.08361742943111539,0.0015163536264470312,-0.04438795949456035,0.14780054931829237,0.16391481395407864,0.2,2.3742325887706985,-60.0001403060998,60.0001403060998
2,1,5,0.37173333333333336,-2.634446441553089,0.3829065851070123,0.041,0.041,0.15599240075345297,-0.15427772049950436,0.03783333926380504,-0.10134330507897715,0.0017146802539486083,-0.06350996581517211,0.16051476770900566,0.18458624143433286,0.2,3.362802558538558,-60.0001403060998,60.0001403060998
3,2,3,0.32995,-2.9705137433791546,0.423047252012082,0.0365,0.0365,0.17291220291981427,-0.17117046970292174,0.03715581343945606,-0.0917529205269071,0.001741733216892527,-0.054597107087451045,0.17685922195613857,0.19421104016902793,0.2,3.363779618872479,-60.0001403060998,60.0001403060998
5,2,5,0.28980000000000006,-3.32235273589815,0.6528916090731525,0.028833333333333336,0.028833333333333336,0.13733638955828986,-0.13578169812597526,0.0560580599662088,-0.10087563394589687,0.0015546914323145977,-0.044817573979688066,0.14833674522545454,0.1691524846697797,0.2,2.1984105688052615,-60.0001403060998,60.0001403060998
6,3,4,0.28505,-3.324436966625986,0.7815138436541214,0.010666666666666668,0.010666666666666668,-0.05342952030458743,0.0536457432739487,-0.007632286239614558,-0.01041180534404942,0.0002162229693612669,-0.018044091583663976,0.05397189484557431,0.05464678821245388,0.2,-0.9895470301017797,-60.0001403060998,60.0001403060998
1,1,2,0.09861666666666669,-9.763222778777191,1.918653954227162,0.044000000000000004,0.044000000000000004,0.19638902128812788,-0.19560448714134931,-0.037833349255324236,-0.04170005527253144,0.0007845341467785649,-0.07953340452785568,0.20000002499595868,0.20000002499890462,0.2,1.1643919897332966,-60.0001403060998,60.0001403060998
